data_image0
_chemical_formula_structural       BNBNBNBNBNBNBNBN
_chemical_formula_sum              "B8 N8"
_cell_length_a       5.12794
_cell_length_b       5.12794
_cell_length_c       5.12794
_cell_angle_alpha    60
_cell_angle_beta     60
_cell_angle_gamma    60

_space_group_name_H-M_alt    "P 1"
_space_group_IT_number       1

loop_
  _space_group_symop_operation_xyz
  'x, y, z'

loop_
  _atom_site_type_symbol
  _atom_site_label
  _atom_site_symmetry_multiplicity
  _atom_site_fract_x
  _atom_site_fract_y
  _atom_site_fract_z
  _atom_site_occupancy
  B   B1        1.0  0.00221  0.00012  0.00234  1.0000
  N   N1        1.0  0.12805  0.12998  0.12267  1.0000
  B   B2        1.0  0.50211  -0.00026  -0.00025  1.0000
  N   N2        1.0  0.62448  0.12417  0.12847  1.0000
  B   B3        1.0  0.00099  0.49992  0.00106  1.0000
  N   N3        1.0  0.12413  0.62853  0.12451  1.0000
  B   B4        1.0  0.50360  0.50011  -0.00610  1.0000
  N   N4        1.0  0.62589  0.62754  0.12323  1.0000
  B   B5        1.0  0.00603  -0.00331  0.50011  1.0000
  N   N5        1.0  0.12174  0.12728  0.62851  1.0000
  B   B6        1.0  0.50058  0.00156  0.49788  1.0000
  N   N6        1.0  0.62140  0.12409  0.62537  1.0000
  B   B7        1.0  0.00135  0.50302  0.49907  1.0000
  N   N7        1.0  0.12672  0.62377  0.62161  1.0000
  B   B8        1.0  0.49488  0.50480  0.49878  1.0000
  N   N8        1.0  0.62494  0.62156  0.62686  1.0000
