16
Lattice="5.1279412 0.0 0.0 2.5639706 4.44092734831286 0.0 2.5639706 1.48030911610428 4.18694645699842" Properties=species:S:1:pos:R:3 pbc="T T T"
B        0.00000000       0.00000000       0.00000000
N        1.28198530       0.74015456       0.52336831
B        1.28198530       0.74015456       2.09347323
N        2.56397060       1.48030912       2.61684154
B        1.28198530       2.22046367       0.00000000
N        2.56397061       2.96061823       0.52336831
B        2.56397060       2.96061823       2.09347323
N        3.84595591       3.70077279       2.61684154
B        2.56397060       0.00000000       0.00000000
N        3.84595590       0.74015456       0.52336831
B        3.84595590       0.74015456       2.09347323
N        5.12794120       1.48030912       2.61684154
B        3.84595591       2.22046367       0.00000000
N        5.12794121       2.96061823       0.52336831
B        5.12794121       2.96061823       2.09347323
N        6.40992651       3.70077279       2.61684154
